Version 4
SHEET 1 3576 680
WIRE 1008 -1424 560 -1424
WIRE 1312 -1424 1008 -1424
WIRE 1536 -1424 1312 -1424
WIRE 1008 -1408 1008 -1424
WIRE 1312 -1392 1312 -1424
WIRE 1536 -1328 1536 -1424
WIRE 1312 -1280 1312 -1312
WIRE 1008 -1232 1008 -1328
WIRE 1056 -1232 1008 -1232
WIRE 1248 -1232 1056 -1232
WIRE 1008 -1152 1008 -1232
WIRE 1056 -1152 1056 -1232
WIRE 1312 -1120 1312 -1184
WIRE 1392 -1120 1312 -1120
WIRE 1536 -1120 1536 -1248
WIRE 1536 -1120 1392 -1120
WIRE 1600 -1120 1536 -1120
WIRE 1632 -1120 1600 -1120
WIRE 1392 -1056 1392 -1120
WIRE 1008 -912 1008 -1088
WIRE 1056 -912 1056 -1088
WIRE 512 -736 224 -736
WIRE 560 -736 560 -1424
WIRE 560 -736 512 -736
WIRE 1120 -736 560 -736
WIRE 2064 -736 1120 -736
WIRE 2240 -736 2064 -736
WIRE 2960 -736 2288 -736
WIRE 3088 -736 3024 -736
WIRE 3184 -736 3088 -736
WIRE 3296 -736 3184 -736
WIRE 2064 -720 2064 -736
WIRE 2240 -720 2240 -736
WIRE 2288 -720 2288 -736
WIRE 3184 -720 3184 -736
WIRE 3296 -720 3296 -736
WIRE 224 -640 224 -736
WIRE 1264 -640 1232 -640
WIRE 1296 -640 1264 -640
WIRE 1920 -640 1744 -640
WIRE 2064 -640 2064 -656
WIRE 2288 -624 2288 -640
WIRE 3184 -624 3184 -656
WIRE 3296 -624 3296 -640
WIRE 1200 -560 1184 -560
WIRE 1296 -560 1200 -560
WIRE 1792 -560 1744 -560
WIRE 1920 -560 1920 -640
WIRE 1920 -560 1872 -560
WIRE 2240 -560 2240 -640
WIRE 2368 -560 2240 -560
WIRE 2368 -544 2368 -560
WIRE 1296 -480 1024 -480
WIRE 1792 -480 1744 -480
WIRE 2240 -480 2240 -560
WIRE 2368 -464 2368 -480
WIRE 224 -448 224 -560
WIRE 512 -448 512 -736
WIRE 1120 -400 1120 -736
WIRE 1296 -400 1120 -400
WIRE 2192 -400 1744 -400
WIRE 2480 -384 2448 -384
WIRE 2496 -384 2480 -384
WIRE 2448 -352 2448 -384
WIRE 1296 -320 1264 -320
WIRE 1760 -320 1744 -320
WIRE 2080 -320 2000 -320
WIRE 2240 -320 2240 -384
WIRE 2240 -320 2160 -320
WIRE 2240 -304 2240 -320
WIRE 3088 -304 3088 -736
WIRE 3088 -304 2976 -304
WIRE 1296 -240 1232 -240
WIRE 2064 -240 1744 -240
WIRE 2384 -224 2320 -224
WIRE 2448 -224 2448 -272
WIRE 2560 -224 2448 -224
WIRE 2848 -224 2752 -224
WIRE 2976 -224 2976 -304
WIRE 2976 -224 2928 -224
WIRE 3088 -224 3088 -304
WIRE 2240 -208 2240 -224
WIRE 1264 -160 1264 -320
WIRE 2000 -160 2000 -320
WIRE 2000 -160 1264 -160
WIRE 2064 -144 2064 -240
WIRE 2320 -144 2320 -224
WIRE 2320 -144 2064 -144
WIRE 2560 -128 2448 -128
WIRE 2784 -128 2752 -128
WIRE 2784 -112 2784 -128
WIRE 2832 -112 2784 -112
WIRE 2912 -112 2832 -112
WIRE 3088 -112 3088 -144
WIRE 3088 -112 3056 -112
WIRE 2448 -96 2448 -128
WIRE 224 -48 224 -368
WIRE 288 -48 224 -48
WIRE 416 -48 352 -48
WIRE 512 -48 512 -384
WIRE 512 -48 480 -48
WIRE 1024 -48 1024 -480
WIRE 1024 -48 512 -48
WIRE 1920 -48 1920 -560
WIRE 1920 -48 1024 -48
WIRE 2832 -48 2832 -112
WIRE 2832 -48 2752 -48
WIRE 2752 -16 2752 -48
WIRE 3088 80 3088 -112
WIRE 2752 128 2752 48
WIRE 2832 128 2752 128
WIRE 2832 176 2832 128
WIRE 3088 176 3088 160
FLAG 2240 -208 0
FLAG 2064 -640 0
FLAG 2288 -624 0
FLAG 3184 -624 0
FLAG 3296 -624 0
FLAG 3088 176 0
FLAG 3296 -736 OUT
FLAG 2368 -464 0
FLAG 224 -736 IN
FLAG 1760 -320 0
FLAG 2832 176 0
FLAG 1792 -480 pvcc
FLAG 2480 -384 pvcc
FLAG 2448 -96 0
FLAG 1232 -240 0
FLAG 1008 -912 0
FLAG 1056 -912 0
FLAG 1200 -560 nPWRGD
FLAG 1600 -1120 pvcc
FLAG 1392 -992 0
FLAG 1232 -640 0
FLAG 1264 -640 pout
SYMBOL nmos 2192 -480 R0
SYMATTR InstName Q1
SYMATTR Value Si3440DV
SYMBOL res 2224 -320 R0
SYMATTR InstName R1
SYMATTR Value 0.05
SYMBOL cap 2048 -720 R0
SYMATTR InstName C1
SYMATTR Value 11µ
SYMATTR Value2 Rser=100m
SYMATTR SpiceLine Rser=100m
SYMBOL ind2 2224 -736 R0
WINDOW 0 0 26 Right 2
WINDOW 3 -6 72 Right 2
SYMATTR InstName L1
SYMATTR Value 127µ
SYMATTR Type ind
SYMATTR SpiceLine Rser=0.1
SYMBOL ind2 2304 -624 R180
WINDOW 0 -8 79 Right 2
WINDOW 3 -7 40 Right 2
SYMATTR InstName L2
SYMATTR Value 10µ
SYMATTR Type ind
SYMATTR SpiceLine Rser=10m
SYMBOL schottky 2960 -720 R270
WINDOW 0 32 32 VTop 2
WINDOW 3 0 32 VBottom 2
SYMATTR InstName D1
SYMATTR Value MBR745
SYMATTR Description Diode
SYMATTR Type diode
SYMBOL cap 3168 -720 R0
SYMATTR InstName C2
SYMATTR Value 320µ
SYMATTR SpiceLine Rser=10m
SYMBOL voltage 224 -464 R0
WINDOW 123 24 138 Left 2
WINDOW 39 24 117 Left 2
SYMATTR Value PULSE(0 40 0 100m)
SYMATTR InstName V1
SYMBOL cap 496 -448 R0
WINDOW 39 24 67 Left 2
WINDOW 3 40 33 Left 2
SYMATTR SpiceLine Rser=10m
SYMATTR Value .1µ
SYMATTR InstName C3
SYMBOL res 2176 -336 R90
WINDOW 0 0 56 VBottom 2
WINDOW 3 32 56 VTop 2
SYMATTR InstName R3
SYMATTR Value 10k
SYMBOL res 1888 -576 R90
WINDOW 0 0 56 VBottom 2
WINDOW 3 32 56 VTop 2
SYMATTR InstName R4
SYMATTR Value 100Meg
SYMBOL res 3072 -240 R0
SYMATTR InstName R6
SYMATTR Value 100k
SYMBOL res 3072 64 R0
SYMATTR InstName R7
SYMATTR Value 33k
SYMBOL cap 2352 -544 R0
WINDOW 3 39 37 Left 2
WINDOW 39 21 67 Left 2
SYMATTR Value 68p
SYMATTR SpiceLine Rser=280
SYMATTR InstName C5
SYMBOL schottky 480 -64 R90
WINDOW 0 0 32 VBottom 2
WINDOW 3 32 32 VTop 2
SYMATTR InstName D2
SYMATTR Value MBRS1100
SYMATTR Description Diode
SYMATTR Type diode
SYMBOL schottky 352 -64 R90
WINDOW 0 0 32 VBottom 2
WINDOW 3 32 32 VTop 2
SYMATTR InstName D3
SYMATTR Value MBRS1100
SYMATTR Description Diode
SYMATTR Type diode
SYMBOL LTC4267 1520 -432 R0
SYMATTR InstName U1
SYMBOL res 3280 -736 R0
SYMATTR InstName Rload
SYMATTR Value 4
SYMBOL Optos\\PC817D 2656 -176 M0
SYMATTR InstName U2
SYMBOL res 2944 -240 R90
WINDOW 0 0 56 VBottom 2
WINDOW 3 32 56 VTop 2
SYMATTR InstName R8
SYMATTR Value 1k
SYMBOL res 3008 -128 R90
WINDOW 0 0 56 VBottom 2
WINDOW 3 32 56 VTop 2
SYMATTR InstName R9
SYMATTR Value 10k
SYMBOL cap 3056 -128 R90
WINDOW 0 0 32 VBottom 2
WINDOW 3 32 32 VTop 2
SYMATTR InstName C7
SYMATTR Value 6.8n
SYMBOL res 2432 -368 R0
SYMATTR InstName R10
SYMATTR Value 6.8k
SYMBOL diode 2384 -208 R270
WINDOW 0 32 32 VTop 2
WINDOW 3 0 32 VBottom 2
SYMATTR InstName D4
SYMATTR Value BAS16HM
SYMBOL zener 2768 48 R180
WINDOW 0 24 64 Left 2
WINDOW 3 24 0 Left 2
SYMATTR InstName D5
SYMATTR Value 1N750
SYMATTR Description Diode
SYMATTR Type diode
SYMBOL res 1024 -1312 R180
WINDOW 0 36 76 Left 2
WINDOW 3 36 40 Left 2
SYMATTR InstName R16
SYMATTR Value 220k
SYMBOL res 1552 -1232 R180
WINDOW 0 36 76 Left 2
WINDOW 3 36 40 Left 2
SYMATTR InstName R17
SYMATTR Value 220k
SYMBOL npn 1248 -1280 R0
SYMATTR InstName Q4
SYMATTR Value 2N3019
SYMBOL zener 1024 -1088 R180
WINDOW 0 24 64 Left 2
WINDOW 3 24 0 Left 2
SYMATTR InstName D7
SYMATTR Value BZX84C9V1L
SYMBOL res 1296 -1408 R0
SYMATTR InstName R19
SYMATTR Value 100
SYMBOL cap 1040 -1152 R0
SYMATTR InstName C9
SYMATTR Value 47n
SYMBOL res 208 -656 R0
SYMATTR InstName Rleitung
SYMATTR Value 0
SYMBOL cap 1376 -1056 R0
SYMATTR InstName C4
SYMATTR Value 10µ
TEXT 2104 -80 Left 2 !.tran 200m startup
TEXT 2264 -744 Bottom 2 !K1 L1 L2 0.97
TEXT 384 -96 Bottom 2 ;Diode Bridge
TEXT 3296 -768 Bottom 2 ;3.3V @ 1.5A
