Version 4
SHEET 1 1516 680
WIRE -480 -16 -928 -16
WIRE 320 0 192 0
WIRE 720 0 320 0
WIRE 0 80 -80 80
WIRE 192 80 192 0
WIRE 192 80 80 80
WIRE 320 80 320 0
WIRE -480 128 -480 -16
WIRE -336 128 -480 128
WIRE -80 128 -80 80
WIRE -80 128 -144 128
WIRE 720 192 720 0
WIRE -336 224 -448 224
WIRE -48 224 -144 224
WIRE -928 240 -928 -16
WIRE -48 240 -48 224
WIRE 32 240 -48 240
WIRE 320 240 320 160
WIRE 320 240 176 240
WIRE -48 352 -48 240
WIRE 320 384 320 240
WIRE 320 384 -16 384
WIRE 320 432 320 384
WIRE -928 480 -928 320
WIRE -448 480 -448 224
WIRE -448 480 -928 480
WIRE -448 512 -448 480
WIRE -48 592 -48 416
WIRE 320 592 320 512
WIRE 720 592 720 272
FLAG -48 592 0
FLAG 320 592 0
FLAG 720 592 0
FLAG -448 512 0
SYMBOL References\\LT1009 -48 384 R0
SYMATTR InstName U1
SYMBOL Optos\\PC817A -240 176 M0
SYMATTR InstName U2
SYMBOL res 304 64 R0
SYMATTR InstName R1
SYMATTR Value 100k
SYMBOL res 304 416 R0
SYMATTR InstName R2
SYMATTR Value {x}
SYMBOL res 96 64 R90
WINDOW 0 0 56 VBottom 2
WINDOW 3 32 56 VTop 2
SYMATTR InstName R3
SYMATTR Value 1k
SYMBOL res 128 224 R90
WINDOW 0 0 56 VBottom 2
WINDOW 3 32 56 VTop 2
SYMATTR InstName R4
SYMATTR Value 0
SYMBOL cap 176 224 R90
WINDOW 0 0 32 VBottom 2
WINDOW 3 32 32 VTop 2
SYMATTR InstName C1
SYMATTR Value 6.8n
SYMBOL voltage 720 176 R0
WINDOW 123 0 0 Left 0
WINDOW 39 0 0 Left 0
SYMATTR InstName V1
SYMATTR Value PULSE(0 10 0 10)
SYMBOL voltage -928 224 R0
WINDOW 123 0 0 Left 0
WINDOW 39 0 0 Left 0
SYMATTR InstName V2
SYMATTR Value 8
TEXT -962 616 Left 2 !.tran 10
TEXT 1008 440 Left 2 !.step param x list 33k 66.4k 100k 1000meg
